LTspice 24.1.9 for Windows
Circuit: C:\Users\Dell\Documents\GitHub\transistor-IF-stage\transistor-IF-stage-capacitive-coupling.net
Start Time: Mon Aug 18 10:26:16 2025
solver = Normal
Maximum thread count: 8
tnom = 27
temp = 27
method = trap
Direct Newton iteration for .op point succeeded.
Total elapsed time: 0.140 seconds.

Files loaded:
C:\Users\Dell\Documents\GitHub\transistor-IF-stage\transistor-IF-stage-capacitive-coupling.net
C:\Users\Dell\AppData\Local\LTspice\lib\cmp\standard.bjt

Fourier components of V(OUT)
N-Period=1
DC component:9.14306e-07

Harmonic	Frequency	 Fourier 	Normalized	 Phase  	Normalized
 Number 	  [Hz]   	Component	 Component	[degree]	Phase [deg]
    1   	 4.550e+05	 1.349e-02	 1.000e+00	   56.30°	    0.00°
    2   	 9.100e+05	 9.253e-05	 6.861e-03	   -8.35°	  -64.65°
    3   	 1.365e+06	 7.019e-05	 5.204e-03	   55.81°	   -0.49°
    4   	 1.820e+06	 2.510e-05	 1.861e-03	 -168.18°	 -224.48°
    5   	 2.275e+06	 3.374e-05	 2.501e-03	   80.82°	   24.53°
    6   	 2.730e+06	 6.505e-06	 4.823e-04	  -29.77°	  -86.07°
    7   	 3.185e+06	 5.372e-06	 3.983e-04	  114.80°	   58.51°
    8   	 3.640e+06	 1.845e-05	 1.368e-03	 -145.29°	 -201.58°
    9   	 4.095e+06	 2.101e-05	 1.558e-03	    0.97°	  -55.32°
Partial Harmonic Distortion: 0.941091%
Total Harmonic Distortion:   1.201026%

